/*--------------------------------*- C++ -*----------------------------------*\
| =========                 |                                                 |
| \\      /  F ield         | OpenFOAM: The Open Source CFD Toolbox           |
|  \\    /   O peration     | Version:  2312                                  |
|   \\  /    A nd           | Website:  www.openfoam.com                      |
|    \\/     M anipulation  |                                                 |
\*---------------------------------------------------------------------------*/
// * * * * * * * * * * * * * * * * * * * * * * * * * * * * * * * * * * * * * //
FoamFile
{
    version         2;
    format          ascii;
    class           dictionary;
    object          turbulenceProperties;
}

simulationType  RAS;

RAS
{
    RASModel        kOmegaSSTWindFarm;
    Separation      1;                //Correcting Omega-transport equation.
    A0I             1.05;             //Corrective C_Pw in the original paper
    SecondaryFlow   1;                //Enabling secondary flows.
    C0I             1.4;              //Corrective C_SF in the original paper
    turbulence      on;
    printCoeffs     on;
}


// ************************************************************************* //
